Version 4
SHEET 1 880 680
WIRE 400 -48 224 -48
WIRE 224 -16 224 -48
WIRE 224 80 224 64
WIRE 400 80 400 -48
WIRE 224 112 224 80
WIRE 0 160 -96 160
WIRE 160 160 80 160
WIRE -96 208 -96 160
WIRE 400 208 400 160
WIRE 224 240 224 208
WIRE -96 320 -96 288
FLAG 400 208 0
FLAG 224 80 VCE
FLAG -96 320 0
FLAG 224 240 0
SYMBOL npn 160 112 R0
SYMATTR InstName Q1
SYMATTR Value BC547C
SYMBOL res 208 -32 R0
SYMATTR InstName R1
SYMATTR Value 1k
SYMBOL voltage 400 64 R0
WINDOW 3 24 44 Left 2
WINDOW 123 0 0 Left 2
WINDOW 39 0 0 Left 2
SYMATTR Value 1
SYMATTR InstName VCC
SYMBOL voltage -96 192 R0
WINDOW 123 0 0 Left 2
WINDOW 39 0 0 Left 2
SYMATTR InstName VBB
SYMATTR Value {Vbb}
SYMBOL res 96 144 R90
WINDOW 0 0 56 VBottom 2
WINDOW 3 32 56 VTop 2
SYMATTR InstName R2
SYMATTR Value 33k
TEXT -240 40 Left 2 !.dc VCC 0 12 0.1
TEXT -240 72 Left 2 !.step param Vbb 0.8 1.4 0.2
